Circuit: * C:\Users\mynam\OneDrive\Documents\New folder (3)\Draft2.asc

Instance "m16": Length shorter than recommended for a level 1 MOSFET.
Instance "m16": Width narrower than recommended for a level 1 MOSFET.
Instance "m15": Length shorter than recommended for a level 1 MOSFET.
Instance "m15": Width narrower than recommended for a level 1 MOSFET.
Instance "m14": Length shorter than recommended for a level 1 MOSFET.
Instance "m14": Width narrower than recommended for a level 1 MOSFET.
Instance "m13": Length shorter than recommended for a level 1 MOSFET.
Instance "m13": Width narrower than recommended for a level 1 MOSFET.
Instance "m12": Length shorter than recommended for a level 1 MOSFET.
Instance "m12": Width narrower than recommended for a level 1 MOSFET.
Instance "m11": Length shorter than recommended for a level 1 MOSFET.
Instance "m11": Width narrower than recommended for a level 1 MOSFET.
Instance "m10": Length shorter than recommended for a level 1 MOSFET.
Instance "m10": Width narrower than recommended for a level 1 MOSFET.
Instance "m9": Length shorter than recommended for a level 1 MOSFET.
Instance "m9": Width narrower than recommended for a level 1 MOSFET.
Instance "m8": Length shorter than recommended for a level 1 MOSFET.
Instance "m8": Width narrower than recommended for a level 1 MOSFET.
Instance "m7": Length shorter than recommended for a level 1 MOSFET.
Instance "m7": Width narrower than recommended for a level 1 MOSFET.
Instance "m6": Length shorter than recommended for a level 1 MOSFET.
Instance "m6": Width narrower than recommended for a level 1 MOSFET.
Instance "m5": Length shorter than recommended for a level 1 MOSFET.
Instance "m5": Width narrower than recommended for a level 1 MOSFET.
Instance "m4": Length shorter than recommended for a level 1 MOSFET.
Instance "m4": Width narrower than recommended for a level 1 MOSFET.
Instance "m3": Length shorter than recommended for a level 1 MOSFET.
Instance "m3": Width narrower than recommended for a level 1 MOSFET.
Instance "m2": Length shorter than recommended for a level 1 MOSFET.
Instance "m2": Width narrower than recommended for a level 1 MOSFET.
Instance "m1": Length shorter than recommended for a level 1 MOSFET.
Instance "m1": Width narrower than recommended for a level 1 MOSFET.
Direct Newton iteration for .op point succeeded.

Date: Sun Dec 17 23:34:34 2023
Total elapsed time: 0.132 seconds.

tnom = 27
temp = 27
method = modified trap
totiter = 3713
traniter = 3673
tranpoints = 1314
accept = 1246
rejected = 68
matrix size = 18
fillins = 0
solver = Normal
Thread vector: 2.6/2.1[2] 2.9/6.0[1] 0.8/1.4[1] 0.1/0.3[1]  2592/500
Matrix Compiler1: 1.16 KB object code size  0.2/0.1/[0.1]
Matrix Compiler2: off  [0.1]/0.2/0.1

