Circuit: * C:\Users\mynam\OneDrive\Documents\New folder (3)\Draft1.asc

Instance "m:x6:4": Length shorter than recommended for a level 1 MOSFET.
Instance "m:x6:4": Width narrower than recommended for a level 1 MOSFET.
Instance "m:x6:3": Length shorter than recommended for a level 1 MOSFET.
Instance "m:x6:3": Width narrower than recommended for a level 1 MOSFET.
Instance "m:x5:4": Length shorter than recommended for a level 1 MOSFET.
Instance "m:x5:4": Width narrower than recommended for a level 1 MOSFET.
Instance "m:x5:3": Length shorter than recommended for a level 1 MOSFET.
Instance "m:x5:3": Width narrower than recommended for a level 1 MOSFET.
Instance "m:x6:2": Length shorter than recommended for a level 1 MOSFET.
Instance "m:x6:2": Width narrower than recommended for a level 1 MOSFET.
Instance "m:x6:1": Length shorter than recommended for a level 1 MOSFET.
Instance "m:x6:1": Width narrower than recommended for a level 1 MOSFET.
Instance "m:x5:2": Length shorter than recommended for a level 1 MOSFET.
Instance "m:x5:2": Width narrower than recommended for a level 1 MOSFET.
Instance "m:x5:1": Length shorter than recommended for a level 1 MOSFET.
Instance "m:x5:1": Width narrower than recommended for a level 1 MOSFET.
Instance "m:x2:2": Length shorter than recommended for a level 1 MOSFET.
Instance "m:x2:2": Width narrower than recommended for a level 1 MOSFET.
Instance "m:x2:1": Length shorter than recommended for a level 1 MOSFET.
Instance "m:x2:1": Width narrower than recommended for a level 1 MOSFET.
Instance "m:x1:2": Length shorter than recommended for a level 1 MOSFET.
Instance "m:x1:2": Width narrower than recommended for a level 1 MOSFET.
Instance "m:x1:1": Length shorter than recommended for a level 1 MOSFET.
Instance "m:x1:1": Width narrower than recommended for a level 1 MOSFET.
Direct Newton iteration for .op point succeeded.

Date: Thu Dec 14 17:06:21 2023
Total elapsed time: 0.119 seconds.

tnom = 27
temp = 27
method = modified trap
totiter = 2462
traniter = 2422
tranpoints = 1122
accept = 1102
rejected = 20
matrix size = 28
fillins = 0
solver = Normal
Thread vector: 3.0/7.1[1] 1.9/1.7[2] 0.7/1.3[1] 0.1/0.8[1]  2592/500
Matrix Compiler1:      81 opcodes  0.3/[0.2]/0.2
Matrix Compiler2: off  [0.2]/0.3/0.2

